powerfulcases/cases/matpower/case6468rte/case6468rte.raw
0, 100, 33, 0, 0, 60  / 28-Jan-2026 21:52:56 - MATPOWER 8.1


     1, 'BUS 1       ',        45, 1,    1,    1, 1, 0.982360162, -16.9924109,    1, 0.888889,    1, 0.888889
     2, 'BUS 2       ',        63, 1,    1,    1, 1,  1.03357339,  -12.617296, 1.06349, 0.936508, 1.06349, 0.936508
     3, 'BUS 3       ',        63, 1,    1,    1, 1, 0.982847442, -9.54178066, 1.07937, 0.952381, 1.07937, 0.952381
     4, 'BUS 4       ',        90, 1,    1,    1, 1,  1.06611868, -3.90213962, 1.08889, 0.933333, 1.08889, 0.933333
     5, 'BUS 5       ',        63, 1,    1,    1, 1, 0.982872119, -29.8927969, 1.06349, 0.952381, 1.06349, 0.952381
     6, 'BUS 6       ',        63, 1,    1,    1, 1,  1.03222939, -15.5443256, 1.07937, 0.920635, 1.07937, 0.920635
     7, 'BUS 7       ',        63, 1,    1,    1, 1,  1.05987038, -17.5729894, 1.07937, 0.920635, 1.07937, 0.920635
     8, 'BUS 8       ',       225, 1,    1,    1, 1,  1.06971348, -0.192853327, 1.08889, 0.888889, 1.08889, 0.888889
     9, 'BUS 9       ',        63, 1,    1,    1, 1,  1.03236682, -21.5130541, 1.06349, 0.936508, 1.06349, 0.936508
    10, 'BUS 10      ',        90, 1,    1,    1, 1,  1.06578606, -3.53511699, 1.07778, 0.922222, 1.07778, 0.922222
    11, 'BUS 11      ',        90, 1,    1,    1, 1,  1.06578583, -3.53511451, 1.07778, 0.922222, 1.07778, 0.922222
    12, 'BUS 12      ',        63, 1,    1,    1, 1, 0.991391885,  3.70767097, 1.07937, 0.952381, 1.07937, 0.952381
    13, 'BUS 13      ',       380, 1,    1,    1, 1,  1.05441489, -2.34943162, 1.10263, 1.05084, 1.10263, 1.05084
    14, 'BUS 14      ',        90, 1,    1,    1, 1,  1.04768724, -8.23393216, 1.07778, 0.977778, 1.07778, 0.977778
    15, 'BUS 15      ',        63, 1,    1,    1, 1,  1.02545063, -21.0643444, 1.07937, 0.920635, 1.07937, 0.920635
    16, 'BUS 16      ',        63, 1,    1,    1, 1,  1.04945776, -23.5577781, 1.07937, 0.920635, 1.07937, 0.920635
    17, 'BUS 17      ',        90, 1,    1,    1, 1,  1.04996416, -15.5847968, 1.06667, 0.977778, 1.06667, 0.977778
    18, 'BUS 18      ',        45, 1,    1,    1, 1, 0.921553843,  -10.990672,    1, 0.888889,    1, 0.888889
    19, 'BUS 19      ',        63, 1,    1,    1, 1,  1.02569452, -12.7430969, 1.06349, 0.936508, 1.06349, 0.936508
    20, 'BUS 20      ',        45, 1,    1,    1, 1, 0.922386141, -11.0219232,    1, 0.888889,    1, 0.888889
    21, 'BUS 21      ',        90, 1,    1,    1, 1,  1.04121459, -9.90179602, 1.06667, 0.977778, 1.06667, 0.977778
    22, 'BUS 22      ',        63, 1,    1,    1, 1,   1.0019562, -4.57036053, 1.07937, 0.952381, 1.07937, 0.952381
    23, 'BUS 23      ',        63, 1,    1,    1, 1,    1.006657, -17.7208694, 1.06349, 0.936508, 1.06349, 0.936508
    24, 'BUS 24      ',        90, 1,    1,    1, 1,  1.06346895, -2.60211418, 1.11111, 0.955556, 1.11111, 0.955556
    25, 'BUS 25      ',        90, 1,    1,    1, 1,  1.09135684, -0.999788965,  1.1, 0.944444,  1.1, 0.944444
    26, 'BUS 26      ',        90, 1,    1,    1, 1,  1.02477314, -7.88570753, 1.06667, 0.977778, 1.06667, 0.977778
    27, 'BUS 27      ',       225, 1,    1,    1, 1,  1.06682063, -4.11970324, 1.08444, 1.00444, 1.08444, 1.00444
    28, 'BUS 28      ',        63, 1,    1,    1, 1,  1.02834601, -13.3067586, 1.07937, 0.952381, 1.07937, 0.952381
    29, 'BUS 29      ',        63, 1,    1,    1, 1,  1.01167743, -22.7325495, 1.06349, 0.968254, 1.06349, 0.968254
    30, 'BUS 30      ',        90, 1,    1,    1, 1,  1.06365968, -3.58628596, 1.08889, 0.933333, 1.08889, 0.933333
    31, 'BUS 31      ',        63, 1,    1,    1, 1,  1.02844026, -14.5718586, 1.06349, 0.936508, 1.06349, 0.936508
    32, 'BUS 32      ',       150, 1,    1,    1, 1,  1.02538048, -9.48891608, 1.10667,  0.9, 1.10667,  0.9
    33, 'BUS 33      ',       225, 1,    1,    1, 1,  1.03986876, -11.0997968, 1.08889, 0.933333, 1.08889, 0.933333
    34, 'BUS 34      ',       225, 1,    1,    1, 1,  1.03410534, -11.3247484, 1.08889, 0.933333, 1.08889, 0.933333
    35, 'BUS 35      ',       380, 1,    1,    1, 1,  1.05454522, -7.73479801, 1.10526, 1.03947, 1.10526, 1.03947
    36, 'BUS 36      ',       380, 1,    1,    1, 1,  1.05846774, -6.42917153, 1.10526, 1.03947, 1.10526, 1.03947
    37, 'BUS 37      ',        63, 1,    1,    1, 1,  1.02738953, -17.2538295, 1.07937, 0.920635, 1.07937, 0.920635
    38, 'BUS 38      ',        63, 1,    1,    1, 1,  1.06103227, -3.84377259, 1.09524, 0.936508, 1.09524, 0.936508
    39, 'BUS 39      ',        90, 1,    1,    1, 1,  1.01594027, -16.3550041, 1.07778, 0.977778, 1.07778, 0.977778
    40, 'BUS 40      ',        90, 1,    1,    1, 1,  1.04084684,  -6.8391508, 1.07778, 0.977778, 1.07778, 0.977778
    41, 'BUS 41      ',       225, 1,    1,    1, 1,  1.08069851, -5.41204185, 1.09194, 1.00444, 1.09194, 1.00444
    42, 'BUS 42      ',        63, 1,    1,    1, 1,   1.0954297,  7.87766165, 1.13061, 0.952381, 1.13061, 0.952381
    43, 'BUS 43      ',        90, 1,    1,    1, 1,  1.05270633, -4.48993014, 1.07778, 0.977778, 1.07778, 0.977778
    44, 'BUS 44      ',        63, 1,    1,    1, 1,  1.00594056, -29.8194874, 1.06349, 0.952381, 1.06349, 0.952381
    45, 'BUS 45      ',        90, 1,    1,    1, 1,  1.01692589,  -12.634151, 1.06667, 0.977778, 1.06667, 0.977778
    46, 'BUS 46      ',        63, 1,    1,    1, 1,   1.0100273, -14.4804058, 1.06349, 0.936508, 1.06349, 0.936508
    47, 'BUS 47      ',        63, 2,    1,    1, 1,  1.00922109, -14.4711651, 1.06349, 0.936508, 1.06349, 0.936508
    48, 'BUS 48      ',        90, 1,    1,    1, 1,  1.04957921, -3.90252054, 1.07778, 0.922222, 1.07778, 0.922222
    49, 'BUS 49      ',        63, 1,    1,    1, 1,  1.03425801, -10.8024259, 1.06349, 0.936508, 1.06349, 0.936508
    50, 'BUS 50      ',        63, 1,    1,    1, 1,  1.06027786, -16.7284562, 1.07436, 0.936508, 1.07436, 0.936508
    51, 'BUS 51      ',       225, 1,    1,    1, 1,  1.04603188, -12.4126923, 1.08889, 0.933333, 1.08889, 0.933333
    52, 'BUS 52      ',        90, 1,    1,    1, 1,  1.02216407, -14.3622214, 1.06667, 0.977778, 1.06667, 0.977778
    53, 'BUS 53      ',        63, 1,    1,    1, 1,  1.02177243, -5.58788327, 1.04762, 0.952381, 1.04762, 0.952381
    54, 'BUS 54      ',        90, 1,    1,    1, 1,  1.04651469, -5.31264567, 1.06667, 0.977778, 1.06667, 0.977778
    55, 'BUS 55      ',       225, 1,    1,    1, 1,  1.06911736,  -5.9911251, 1.08889, 1.00444, 1.08889, 1.00444
    56, 'BUS 56      ',       225, 1,    1,    1, 1,  1.05123653, -4.76670164, 1.08889, 1.00444, 1.08889, 1.00444
    57, 'BUS 57      ',        63, 2,    1,    1, 1,       1.059,  -18.944119, 1.07937, 0.920635, 1.07937, 0.920635
    58, 'BUS 58      ',       225, 1,    1,    1, 1,  1.06892859, -6.00264999, 1.08889, 1.00444, 1.08889, 1.00444
    59, 'BUS 59      ',        63, 1,    1,    1, 1, 0.989827684,  -7.3343638, 1.07937, 0.952381, 1.07937, 0.952381
    60, 'BUS 60      ',        63, 1,    1,    1, 1, 0.998943276, -1.88690126, 1.07937, 0.952381, 1.07937, 0.952381
    61, 'BUS 61      ',        63, 1,    1,    1, 1, 0.997465924, -3.77602254, 1.07937, 0.952381, 1.07937, 0.952381
    62, 'BUS 62      ',        63, 1,    1,    1, 1, 0.999694905, -1.60172008, 1.07937, 0.952381, 1.07937, 0.952381
    63, 'BUS 63      ',        63, 1,    1,    1, 1, 0.993826428,  4.48500229, 1.07937, 0.952381, 1.07937, 0.952381
    64, 'BUS 64      ',       225, 1,    1,    1, 1,   1.0705947,  1.91724809, 1.08889, 0.888889, 1.08889, 0.888889
    65, 'BUS 65      ',        63, 1,    1,    1, 1,    1.006946, -4.21144264, 1.07937, 0.952381, 1.07937, 0.952381
    66, 'BUS 66      ',        63, 1,    1,    1, 1,  1.04900055, -17.2658053, 1.06349, 0.936508, 1.06349, 0.936508
    67, 'BUS 67      ',        63, 1,    1,    1, 1,  1.03746815, -8.39981192, 1.07937, 0.920635, 1.07937, 0.920635
    68, 'BUS 68      ',        63, 1,    1,    1, 1,  1.01935997, -13.3684514, 1.06349, 0.936508, 1.06349, 0.936508
    69, 'BUS 69      ',        63, 1,    1,    1, 1,  1.01147201, -33.7215654, 1.06349, 0.952381, 1.06349, 0.952381
    70, 'BUS 70      ',        63, 1,    1,    1, 1,  1.00572368,   3.9676521, 1.07937, 0.952381, 1.07937, 0.952381
    71, 'BUS 71      ',        63, 1,    1,    1, 1,   1.0267104, -6.41569883, 1.04762, 0.952381, 1.04762, 0.952381
    72, 'BUS 72      ',       225, 1,    1,    1, 1,  1.08655561, 0.711980463, 1.08889, 1.00444, 1.08889, 1.00444
    73, 'BUS 73      ',       225, 1,    1,    1, 1,  1.08655583, 0.712358881, 1.08889, 1.00444, 1.08889, 1.00444
    74, 'BUS 74      ',       225, 1,    1,    1, 1,  1.07105686,  1.98697526, 1.08889, 0.888889, 1.08889, 0.888889
    75, 'BUS 75      ',        90, 1,    1,    1, 1,  1.05921685, -4.29954748, 1.06825, 0.977778, 1.06825, 0.977778
    76, 'BUS 76      ',       225, 1,    1,    1, 1,  1.05309569,  7.25307841, 1.08889, 0.986667, 1.08889, 0.986667
    77, 'BUS 77      ',        63, 1,    1,    1, 1,  1.03928192,  -11.930061, 1.06349, 0.936508, 1.06349, 0.936508
    78, 'BUS 78      ',        63, 1,    1,    1, 1,  1.05538569, -21.1340497, 1.07937, 0.920635, 1.07937, 0.920635
    79, 'BUS 79      ',        63, 1,    1,    1, 1,  1.02849409,  -3.9338557, 1.04762, 0.952381, 1.04762, 0.952381
    80, 'BUS 80      ',       225, 1,    1,    1, 1,  1.07157163, -3.87891065, 1.08889, 1.00444, 1.08889, 1.00444
    81, 'BUS 81      ',       225, 1,    1,    1, 1,   1.0715771, -3.87858057, 1.08889, 1.00444, 1.08889, 1.00444
    82, 'BUS 82      ',        63, 1,    1,    1, 1,  1.02853529, -11.2656474, 1.06349, 0.936508, 1.06349, 0.936508
    83, 'BUS 83      ',       225, 1,    1,    1, 1,   1.0638075, -5.21546206, 1.08889, 1.00444, 1.08889, 1.00444
    84, 'BUS 84      ',        63, 1,    1,    1, 1, 0.999291489, -11.8369094, 1.06349, 0.936508, 1.06349, 0.936508
    85, 'BUS 85      ',        63, 1,    1,    1, 1,  1.04254625, -13.6881562, 1.06349, 0.936508, 1.06349, 0.936508
    86, 'BUS 86      ',        90, 1,    1,    1, 1,  1.01684367, -21.5723849, 1.06667, 0.977778, 1.06667, 0.977778
    87, 'BUS 87      ',        63, 1,    1,    1, 1,  1.00372387,  4.29044423, 1.07937, 0.952381, 1.07937, 0.952381
    88, 'BUS 88      ',        63, 1,    1,    1, 1,  1.03334335, -12.8162347, 1.06349, 0.936508, 1.06349, 0.936508
    89, 'BUS 89      ',        90, 1,    1,    1, 1,  1.05584519, -6.77733659, 1.07778, 0.977778, 1.07778, 0.977778
    90, 'BUS 90      ',        45, 1,    1,    1, 1, 0.921441645, -11.9295133,    1, 0.888889,    1, 0.888889
    91, 'BUS 91      ',        45, 1,    1,    1, 1, 0.921553843,  -10.990672,    1, 0.888889,    1, 0.888889
    92, 'BUS 92      ',        63, 1,    1,    1, 1,  1.03495227, -15.8031488, 1.06349, 0.968254, 1.06349, 0.968254
    93, 'BUS 93      ',        45, 1,    1,    1, 1,  0.95187302, -14.3401651,    1, 0.888889,    1, 0.888889
    94, 'BUS 94      ',        90, 1,    1,    1, 1,  1.05414079, -6.74640487, 1.06667, 0.977778, 1.06667, 0.977778
    95, 'BUS 95      ',        90, 1,    1,    1, 1,  1.02303942, -13.8381791, 1.06667, 0.977778, 1.06667, 0.977778
    96, 'BUS 96      ',        63, 1,    1,    1, 1,   1.0260599, -12.6435397, 1.06349, 0.936508, 1.06349, 0.936508
    97, 'BUS 97      ',        63, 1,    1,    1, 1,  1.04296421, -20.2136851, 1.07937, 0.920635, 1.07937, 0.920635
    98, 'BUS 98      ',        63, 1,    1,    1, 1,  1.03653772, -7.55520074, 1.07937, 0.952381, 1.07937, 0.952381
    99, 'BUS 99      ',        63, 1,    1,    1, 1, 0.999827178, -3.33128656, 1.07937, 0.952381, 1.07937, 0.952381
   100, 'BUS 100     ',        63, 1,    1,    1, 1,  1.01522499,  -17.010418, 1.06349, 0.936508, 1.06349, 0.936508
   101, 'BUS 101     ',        63, 1,    1,    1, 1, 0.999154657, -12.3028501, 1.06349, 0.936508, 1.06349, 0.936508
   102, 'BUS 102     ',        63, 2,    1,    1, 1,        1.02, -18.6238254, 1.07937, 0.952381, 1.07937, 0.952381
   103, 'BUS 103     ',        63, 1,    1,    1, 1,   1.0079984, -1.94551408, 1.07937, 0.952381, 1.07937, 0.952381
   104, 'BUS 104     ',       225, 1,    1,    1, 1,  1.04193665, 0.580020317, 1.08889, 0.986667, 1.08889, 0.986667
   105, 'BUS 105     ',       225, 1,    1,    1, 1,  1.06969934,  1.26852595, 1.08889, 0.888889, 1.08889, 0.888889
   106, 'BUS 106     ',        90, 1,    1,    1, 1,  1.07961207, -2.19413024,  1.1, 0.944444,  1.1, 0.944444
   107, 'BUS 107     ',       225, 1,    1,    1, 1,  1.06152701, -23.4875083, 1.08444, 1.00889, 1.08444, 1.00889
   108, 'BUS 108     ',        90, 1,    1,    1, 1,  1.06751598, -2.51173574, 1.07778, 0.977778, 1.07778, 0.977778
   109, 'BUS 109     ',        63, 1,    1,    1, 1,   1.0369229, -12.9079997, 1.06349, 0.936508, 1.06349, 0.936508
   110, 'BUS 110     ',       225, 1,    1,    1, 1,  1.02640258, -9.24746227, 1.08889, 0.933333, 1.08889, 0.933333
   111, 'BUS 111     ',        63, 1,    1,    1, 1,  1.00939675,  -21.031705, 1.06349, 0.968254, 1.06349, 0.968254
   112, 'BUS 112     ',        63, 1,    1,    1, 1,  1.03129628, -6.97598986, 1.04762, 0.952381, 1.04762, 0.952381
   113, 'BUS 113     ',       225, 1,    1,    1, 1,  1.06926066, -4.61981303, 1.08889, 1.00444, 1.08889, 1.00444
   114, 'BUS 114     ',        63, 1,    1,    1, 1,  1.04825819, -17.1565156, 1.06349, 0.936508, 1.06349, 0.936508
   115, 'BUS 115     ',       380, 1,    1,    1, 1,  1.05442402,   -2.349515, 1.10526, 1.05085, 1.10526, 1.05085
   116, 'BUS 116     ',       380, 1,    1,    1, 1,  1.05442402,   -2.349515, 1.10526, 1.05085, 1.10526, 1.05085
   117, 'BUS 117     ',        63, 1,    1,    1, 1,   1.0165245, -13.6614269, 1.07937, 0.952381, 1.07937, 0.952381
   118, 'BUS 118     ',        90, 1,    1,    1, 1,  1.06107447, -4.06873544, 1.07012, 0.977778, 1.07012, 0.977778
   119, 'BUS 119     ',        63, 1,    1,    1, 1,  1.03096497, -6.36943972, 1.06349, 0.936508, 1.06349, 0.936508
   120, 'BUS 120     ',        63, 1,    1,    1, 1,  1.01836144, -17.0457144, 1.06349, 0.936508, 1.06349, 0.936508
   121, 'BUS 121     ',        63, 1,    1,    1, 1,   1.0420724, -13.3689812, 1.07937, 0.920635, 1.07937, 0.920635
   122, 'BUS 122     ',        63, 2,    1,    1, 1,  1.01023281, -2.94306456, 1.07937, 0.952381, 1.07937, 0.952381
   123, 'BUS 123     ',        63, 1,    1,    1, 1,  1.00909715, -3.01405303, 1.07937, 0.952381, 1.07937, 0.952381
   124, 'BUS 124     ',        90, 1,    1,    1, 1,  1.04750139, -11.6708111, 1.06667, 0.977778, 1.06667, 0.977778
   125, 'BUS 125     ',        63, 1,    1,    1, 1,  1.02525611, -2.72388791, 1.07937, 0.952381, 1.07937, 0.952381
   126, 'BUS 126     ',        63, 1,    1,    1, 1,  1.04300004, -13.5118523, 1.06349, 0.936508, 1.06349, 0.936508
   127, 'BUS 127     ',        63, 1,    1,    1, 1,  1.03153449, -8.41516178, 1.04762, 0.952381, 1.04762, 0.952381
   128, 'BUS 128     ',        63, 1,    1,    1, 1,  1.02280368, -10.3503702, 1.06349, 0.968254, 1.06349, 0.968254
   129, 'BUS 129     ',        63, 1,    1,    1, 1,  1.02022374, -9.12770779, 1.06349, 0.968254, 1.06349, 0.968254
   130, 'BUS 130     ',       225, 1,    1,    1, 1,  1.04955399, -7.73172169, 1.08444, 1.00889, 1.08444, 1.00889
   131, 'BUS 131     ',       225, 1,    1,    1, 1,  1.04615594, -17.1645875, 1.08444, 1.00889, 1.08444, 1.00889
   132, 'BUS 132     ',        90, 2,    1,    1, 1,   1.0463591, -16.5763476, 1.07778, 0.922222, 1.07778, 0.922222
   133, 'BUS 133     ',        63, 1,    1,    1, 1,  1.01965411, -7.00251139, 1.04762, 0.952381, 1.04762, 0.952381
   134, 'BUS 134     ',       225, 1,    1,    1, 1,  1.06193957, -4.86747467, 1.08889, 1.00444, 1.08889, 1.00444
   135, 'BUS 135     ',       225, 1,    1,    1, 1,  1.06927351, -5.87646291, 1.08889, 1.00444, 1.08889, 1.00444
   136, 'BUS 136     ',        90, 1,    1,    1, 1,  1.02710605, -14.2466947, 1.07778, 0.977778, 1.07778, 0.977778
   137, 'BUS 137     ',        63, 2,    1,    1, 1,   1.0143739, -23.4864219, 1.06349, 0.968254, 1.06349, 0.968254
   138, 'BUS 138     ',       150, 1,    1,    1, 1,  1.00897643, -19.9217542, 1.08, 0.966667, 1.08, 0.966667
   139, 'BUS 139     ',        63, 1,    1,    1, 1,  1.03847794, -16.1632784, 1.07937, 0.920635, 1.07937, 0.920635
   140, 'BUS 140     ',       225, 1,    1,    1, 1,  1.06127289, -13.4702234, 1.08889,    1, 1.08889,    1
   141, 'BUS 141     ',       380, 1,    1,    1, 1,  1.06994676, -10.7650465, 1.10526, 1.05263, 1.10526, 1.05263
   142, 'BUS 142     ',        63, 1,    1,    1, 1, 0.993257128, -6.98517771, 1.07937, 0.952381, 1.07937, 0.952381
   143, 'BUS 143     ',       225, 1,    1,    1, 1,   1.0334828, -3.41755922, 1.08889, 0.986667, 1.08889, 0.986667
   144, 'BUS 144     ',        20, 1,    1,    1, 1,  1.06620776,    1.536916, 1.15,  0.8, 1.15,  0.8
   145, 'BUS 145     ',        90, 1,    1,    1, 1,  1.06705043,  -1.5239046, 1.11111, 0.955556, 1.11111, 0.955556
   146, 'BUS 146     ',       225, 1,    1,    1, 1,  1.07097109,  2.14454607, 1.08889, 0.968889, 1.08889, 0.968889
   147, 'BUS 147     ',       380, 1,    1,    1, 1,  1.07783429,  4.83523677, 1.10526,    1, 1.10526,    1
   148, 'BUS 148     ',        63, 1,    1,    1, 1,  1.03680277, -16.5944686, 1.06349, 0.936508, 1.06349, 0.936508
   149, 'BUS 149     ',        63, 1,    1,    1, 1,  1.02441331, -12.9816416, 1.06349, 0.936508, 1.06349, 0.936508
   150, 'BUS 150     ',        90, 1,    1,    1, 1,  1.01454521, -14.0796632, 1.06667, 0.977778, 1.06667, 0.977778
   151, 'BUS 151     ',        63, 1,    1,    1, 1,  1.02611775, -14.9997904, 1.06349, 0.936508, 1.06349, 0.936508
   152, 'BUS 152     ',        63, 1,    1,    1, 1,  1.01211903, -23.1600372, 1.06349, 0.968254, 1.06349, 0.968254
   153, 'BUS 153     ',        63, 1,    1,    1, 1,  1.01207021, -21.8763344, 1.06349, 0.968254, 1.06349, 0.968254
   154, 'BUS 154     ',        63, 1,    1,    1, 1,  1.03225001, -12.0973813, 1.06349, 0.936508, 1.06349, 0.936508
   155, 'BUS 155     ',       225, 1,    1,    1, 1,  1.05637984, -8.58028661, 1.08889, 0.933333, 1.08889, 0.933333
   156, 'BUS 156     ',        63, 2,    1,    1, 1,  1.06006444, -22.8241156, 1.07937, 0.920635, 1.07937, 0.920635
   157, 'BUS 157     ',        63, 1,    1,    1, 1,  1.01210105, -23.1618258, 1.06349, 0.968254, 1.06349, 0.968254
   158, 'BUS 158     ',        45, 1,    1,    1, 1, 0.894021909, -15.4634349,    1, 0.888889,    1, 0.888889
   159, 'BUS 159     ',        45, 2,    1,    1, 1, 0.942719036, -12.8864625,    1, 0.888889,    1, 0.888889
   160, 'BUS 160     ',        63, 1,    1,    1, 1,  1.01267136, -17.2728187, 1.06349, 0.936508, 1.06349, 0.936508
   161, 'BUS 161     ',       225, 1,    1,    1, 1,  1.07518951,  2.41120156, 1.08889, 0.888889, 1.08889, 0.888889
   162, 'BUS 162     ',       225, 1,    1,    1, 1,    1.074975,  2.40805165, 1.08889, 0.888889, 1.08889, 0.888889
   163, 'BUS 163     ',        90, 1,    1,    1, 1,  1.03121259, -5.72775953, 1.06667, 0.977778, 1.06667, 0.977778
   164, 'BUS 164     ',        63, 1,    1,    1, 1, 0.999091135, -2.30402632, 1.07937, 0.952381, 1.07937, 0.952381
   165, 'BUS 165     ',        63, 1,    1,    1, 1, 0.999091135, -2.30402632, 1.07937, 0.952381, 1.07937, 0.952381
   166, 'BUS 166     ',        20, 1,    1,    1, 1,  1.06633386, -9.58964308, 1.15,  0.8, 1.15,  0.8
   167, 'BUS 167     ',        90, 1,    1,    1, 1,  1.02745607, -13.2857979, 1.06667, 0.977778, 1.06667, 0.977778
   168, 'BUS 168     ',        90, 1,    1,    1, 1,  1.02810338, -13.3498257, 1.06667, 0.977778, 1.06667, 0.977778
   169, 'BUS 169     ',       225, 1,    1,    1, 1,  1.06631166, -9.58472758, 1.08642, 1.00444, 1.08642, 1.00444
   170, 'BUS 170     ',        90, 1,    1,    1, 1,   1.0391185, -13.5462848, 1.06667, 0.977778, 1.06667, 0.977778
   171, 'BUS 171     ',        90, 1,    1,    1, 1,  1.05280119, -8.40348049, 1.07778, 0.977778, 1.07778, 0.977778
   172, 'BUS 172     ',        90, 1,    1,    1, 1,  1.04464706, -10.0393541, 1.07778, 0.977778, 1.07778, 0.977778
   173, 'BUS 173     ',       225, 1,    1,    1, 1,  1.07096512, -6.67809768, 1.08889, 1.00444, 1.08889, 1.00444
   174, 'BUS 174     ',        90, 1,    1,    1, 1,  1.08721143, 0.0329561429, 1.08889, 0.933333, 1.08889, 0.933333
   175, 'BUS 175     ',        90, 1,    1,    1, 1,  1.08796796, -2.22821436, 1.11111, 0.955556, 1.11111, 0.955556
   176, 'BUS 176     ',        63, 1,    1,    1, 1,     1.04577, -20.3336069, 1.07937, 0.920635, 1.07937, 0.920635
   177, 'BUS 177     ',        63, 1,    1,    1, 1,  1.04279529, -17.8272361, 1.07937, 0.920635, 1.07937, 0.920635
   178, 'BUS 178     ',       150, 2,    1,    1, 1,  1.10160289, -18.7590708,  1.1,  0.9,  1.1,  0.9
   179, 'BUS 179     ',       225, 1,    1,    1, 1,   1.0690417, -5.91848404, 1.08889, 1.00444, 1.08889, 1.00444
   180, 'BUS 180     ',       225, 1,    1,    1, 1,  1.06904192, -5.91848525, 1.08889, 1.00444, 1.08889, 1.00444
   181, 'BUS 181     ',        20, 1,    1,    1, 1,  0.99119725, -8.53756409, 1.15,  0.8, 1.15,  0.8
   182, 'BUS 182     ',        20, 1,    1,    1, 1,  1.02430166, -8.48875303, 1.15,  0.8, 1.15,  0.8
   183, 'BUS 183     ',        63, 1,    1,    1, 1,  1.03160587, -8.40868435, 1.04762, 0.952381, 1.04762, 0.952381
   184, 'BUS 184     ',       225, 1,    1,    1, 1,  1.06904042, -5.91847711, 1.08889, 1.00444, 1.08889, 1.00444
   185, 'BUS 185     ',        63, 1,    1,    1, 1,  1.05191392, -20.0378203, 1.07937, 0.920635, 1.07937, 0.920635
   186, 'BUS 186     ',        63, 1,    1,    1, 1,    1.035067, -8.11398975, 1.06349, 0.936508, 1.06349, 0.936508
   187, 'BUS 187     ',        63, 1,    1,    1, 1,  1.01320511, -10.2426835, 1.07937, 0.952381, 1.07937, 0.952381
   188, 'BUS 188     ',        90, 1,    1,    1, 1,  1.04388382, -3.69893779, 1.07778, 0.977778, 1.07778, 0.977778
   189, 'BUS 189     ',        63, 1,    1,    1, 1, 0.987391007, -7.67127221, 1.07937, 0.952381, 1.07937, 0.952381
   190, 'BUS 190     ',        90, 1,    1,    1, 1,  1.03279505, -4.71023031, 1.06667, 0.977778, 1.06667, 0.977778
   191, 'BUS 191     ',        63, 2,    1,    1, 1,  1.07478839,  -21.670989, 1.07937, 0.920635, 1.07937, 0.920635
   192, 'BUS 192     ',        63, 1,    1,    1, 1,  1.05873673, -18.0373692, 1.07937, 0.920635, 1.07937, 0.920635
   193, 'BUS 193     ',        45, 2,    1,    1, 1, 0.932029654, -14.2141402,    1, 0.888889,    1, 0.888889
   194, 'BUS 194     ',        90, 1,    1,    1, 1,  1.04107718, -13.7984528, 1.06667, 0.977778, 1.06667, 0.977778
   195, 'BUS 195     ',        63, 1,    1,    1, 1,  1.05731467, -19.1154403, 1.07937, 0.920635, 1.07937, 0.920635
   196, 'BUS 196     ',       225, 1,    1,    1, 1,  1.06839555, -5.00603738, 1.08889, 1.00444, 1.08889, 1.00444
   197, 'BUS 197     ',        63, 2,    1,    1, 1,       1.071, -20.1440361, 1.07937, 0.920635, 1.07937, 0.920635
   198, 'BUS 198     ',        63, 1,    1,    1, 1,  1.08949905, -4.92453751, 1.09743, 0.952381, 1.09743, 0.952381
   199, 'BUS 199     ',        63, 1,    1,    1, 1,  1.08950054, -4.92458009, 1.09743, 0.952381, 1.09743, 0.952381
   200, 'BUS 200     ',        63, 1,    1,    1, 1,  1.04260633, -23.4345389, 1.07937, 0.920635, 1.07937, 0.920635
...
0 / END OF BUS DATA, BEGIN LOAD DATA
     3,  1, 1,    1,    1,      11.7,      -1.2, 0, 0, 0, 0, 1, 1, 0
     4,  1, 1,    1,    1,      33.8,      -8.2, 0, 0, 0, 0, 1, 1, 0
     5,  1, 1,    1,    1,        11,      -0.9, 0, 0, 0, 0, 1, 1, 0
     6,  1, 1,    1,    1,        13,       4.3, 0, 0, 0, 0, 1, 1, 0
     7,  1, 1,    1,    1,         1,      -0.2, 0, 0, 0, 0, 1, 1, 0
     8,  1, 1,    1,    1,       0.4,      -4.4, 0, 0, 0, 0, 1, 1, 0
     9,  1, 1,    1,    1,      16.9,         0, 0, 0, 0, 0, 1, 1, 0
    11,  1, 1,    1,    1,        20,      -3.1, 0, 0, 0, 0, 1, 1, 0
    14,  1, 1,    1,    1,        37,       3.6, 0, 0, 0, 0, 1, 1, 0
    16,  1, 1,    1,    1,      10.3,       1.5, 0, 0, 0, 0, 1, 1, 0
    17,  1, 1,    1,    1,      11.2,      -0.6, 0, 0, 0, 0, 1, 1, 0
    19,  1, 1,    1,    1,         1,         0, 0, 0, 0, 0, 1, 1, 0
    20,  1, 1,    1,    1,       2.3,     -18.3, 0, 0, 0, 0, 1, 1, 0
    21,  1, 1,    1,    1,       6.5,      -1.9, 0, 0, 0, 0, 1, 1, 0
    22,  1, 1,    1,    1,      15.2,       1.4, 0, 0, 0, 0, 1, 1, 0
    23,  1, 1,    1,    1,      29.1,       4.6, 0, 0, 0, 0, 1, 1, 0
    24,  1, 1,    1,    1,       9.7,      -2.8, 0, 0, 0, 0, 1, 1, 0
    25,  1, 1,    1,    1,      46.5,      -6.1, 0, 0, 0, 0, 1, 1, 0
    26,  1, 1,    1,    1,      20.5,       4.7, 0, 0, 0, 0, 1, 1, 0
    28,  1, 1,    1,    1,       0.4,       0.9, 0, 0, 0, 0, 1, 1, 0
    29,  1, 1,    1,    1,      52.7,       1.8, 0, 0, 0, 0, 1, 1, 0
    30,  1, 1,    1,    1,      29.8,      -1.9, 0, 0, 0, 0, 1, 1, 0
    37,  1, 1,    1,    1,       2.3,       4.4, 0, 0, 0, 0, 1, 1, 0
    38,  1, 1,    1,    1,         7,        -1, 0, 0, 0, 0, 1, 1, 0
    39,  1, 1,    1,    1,        35,      -6.8, 0, 0, 0, 0, 1, 1, 0
    40,  1, 1,    1,    1,      31.7,       0.5, 0, 0, 0, 0, 1, 1, 0
    43,  1, 1,    1,    1,       3.4,       2.8, 0, 0, 0, 0, 1, 1, 0
    44,  1, 1,    1,    1,      12.4,         0, 0, 0, 0, 0, 1, 1, 0
    45,  1, 1,    1,    1,         3,       2.1, 0, 0, 0, 0, 1, 1, 0
    48,  1, 1,    1,    1,        34,       1.3, 0, 0, 0, 0, 1, 1, 0
    49,  1, 1,    1,    1,       6.9,      -2.5, 0, 0, 0, 0, 1, 1, 0
    52,  1, 1,    1,    1,       5.8,       2.5, 0, 0, 0, 0, 1, 1, 0
    53,  1, 1,    1,    1,       0.2,      -0.3, 0, 0, 0, 0, 1, 1, 0
    54,  1, 1,    1,    1,       0.9,      -0.8, 0, 0, 0, 0, 1, 1, 0
    55,  1, 1,    1,    1,      30.1,       5.4, 0, 0, 0, 0, 1, 1, 0
    56,  1, 1,    1,    1,      42.2,       6.3, 0, 0, 0, 0, 1, 1, 0
    58,  1, 1,    1,    1,     107.6,      28.8, 0, 0, 0, 0, 1, 1, 0
    59,  1, 1,    1,    1,       5.2,       1.4, 0, 0, 0, 0, 1, 1, 0
    61,  1, 1,    1,    1,      29.6,       5.1, 0, 0, 0, 0, 1, 1, 0
    63,  1, 1,    1,    1,      12.8,         2, 0, 0, 0, 0, 1, 1, 0
    64,  1, 1,    1,    1,      47.2,      -0.7, 0, 0, 0, 0, 1, 1, 0
    65,  1, 1,    1,    1,        10,       2.9, 0, 0, 0, 0, 1, 1, 0
    66,  1, 1,    1,    1,      11.1,      -9.3, 0, 0, 0, 0, 1, 1, 0
    68,  1, 1,    1,    1,      41.1,      -6.8, 0, 0, 0, 0, 1, 1, 0
    69,  1, 1,    1,    1,      14.4,      -3.2, 0, 0, 0, 0, 1, 1, 0
    70,  1, 1,    1,    1,       8.7,       0.6, 0, 0, 0, 0, 1, 1, 0
    71,  1, 1,    1,    1,      55.8,      10.7, 0, 0, 0, 0, 1, 1, 0
    74,  1, 1,    1,    1,      37.1,      -8.7, 0, 0, 0, 0, 1, 1, 0
    75,  1, 1,    1,    1,      19.3,       1.4, 0, 0, 0, 0, 1, 1, 0
    76,  1, 1,    1,    1,       6.3,       3.2, 0, 0, 0, 0, 1, 1, 0
    77,  1, 1,    1,    1,      28.9,      -5.2, 0, 0, 0, 0, 1, 1, 0
    80,  1, 1,    1,    1,      26.1,        -1, 0, 0, 0, 0, 1, 1, 0
    81,  1, 1,    1,    1,      26.1,       3.5, 0, 0, 0, 0, 1, 1, 0
    82,  1, 1,    1,    1,       9.8,      -3.2, 0, 0, 0, 0, 1, 1, 0
    83,  1, 1,    1,    1,        85,      46.2, 0, 0, 0, 0, 1, 1, 0
    84,  1, 1,    1,    1,        -1,      -1.1, 0, 0, 0, 0, 1, 1, 0
    85,  1, 1,    1,    1,       2.3,      -0.8, 0, 0, 0, 0, 1, 1, 0
    86,  1, 1,    1,    1,      30.3,      -3.7, 0, 0, 0, 0, 1, 1, 0
    88,  1, 1,    1,    1,      11.5,      -3.8, 0, 0, 0, 0, 1, 1, 0
    89,  1, 1,    1,    1,      17.7,      -4.9, 0, 0, 0, 0, 1, 1, 0
    90,  1, 1,    1,    1,       0.7,      -0.3, 0, 0, 0, 0, 1, 1, 0
    92,  1, 1,    1,    1,      24.7,       0.4, 0, 0, 0, 0, 1, 1, 0
    93,  1, 1,    1,    1,       2.3,      -2.5, 0, 0, 0, 0, 1, 1, 0
    94,  1, 1,    1,    1,        13,      -4.9, 0, 0, 0, 0, 1, 1, 0
    95,  1, 1,    1,    1,        38,       3.8, 0, 0, 0, 0, 1, 1, 0
    96,  1, 1,    1,    1,       0.9,      -0.6, 0, 0, 0, 0, 1, 1, 0
    97,  1, 1,    1,    1,        47,       0.8, 0, 0, 0, 0, 1, 1, 0
    98,  1, 1,    1,    1,       6.6,      -2.2, 0, 0, 0, 0, 1, 1, 0
    99,  1, 1,    1,    1,      21.9,       3.2, 0, 0, 0, 0, 1, 1, 0
   100,  1, 1,    1,    1,      46.3,       7.4, 0, 0, 0, 0, 1, 1, 0
   101,  1, 1,    1,    1,        14,      -1.5, 0, 0, 0, 0, 1, 1, 0
   103,  1, 1,    1,    1,      13.2,        -4, 0, 0, 0, 0, 1, 1, 0
   105,  1, 1,    1,    1,      28.5,      -1.6, 0, 0, 0, 0, 1, 1, 0
   106,  1, 1,    1,    1,      38.8,       2.2, 0, 0, 0, 0, 1, 1, 0
   107,  1, 1,    1,    1,      71.6,       4.9, 0, 0, 0, 0, 1, 1, 0
   108,  1, 1,    1,    1,       7.9,      -4.6, 0, 0, 0, 0, 1, 1, 0
   109,  1, 1,    1,    1,      60.6,       7.8, 0, 0, 0, 0, 1, 1, 0
   111,  1, 1,    1,    1,      34.2,      -7.2, 0, 0, 0, 0, 1, 1, 0
   114,  1, 1,    1,    1,      11.5,        -1, 0, 0, 0, 0, 1, 1, 0
   117,  1, 1,    1,    1,      13.2,      -2.2, 0, 0, 0, 0, 1, 1, 0
   118,  1, 1,    1,    1,         2,       0.8, 0, 0, 0, 0, 1, 1, 0
   119,  1, 1,    1,    1,      35.5,       0.7, 0, 0, 0, 0, 1, 1, 0
   120,  1, 1,    1,    1,      29.9,      -1.3, 0, 0, 0, 0, 1, 1, 0
   121,  1, 1,    1,    1,      15.3,       3.7, 0, 0, 0, 0, 1, 1, 0
   123,  1, 1,    1,    1,         9,       2.7, 0, 0, 0, 0, 1, 1, 0
   124,  1, 1,    1,    1,       8.9,        -4, 0, 0, 0, 0, 1, 1, 0
   125,  1, 1,    1,    1,       4.8,      -3.1, 0, 0, 0, 0, 1, 1, 0
   126,  1, 1,    1,    1,      -0.3,       0.5, 0, 0, 0, 0, 1, 1, 0
   127,  1, 1,    1,    1,       6.5,       0.4, 0, 0, 0, 0, 1, 1, 0
   128,  1, 1,    1,    1,      13.9,       5.6, 0, 0, 0, 0, 1, 1, 0
   129,  1, 1,    1,    1,      18.8,      14.3, 0, 0, 0, 0, 1, 1, 0
   131,  1, 1,    1,    1,        82,         2, 0, 0, 0, 0, 1, 1, 0
   132,  1, 1,    1,    1,      11.9,         0, 0, 0, 0, 0, 1, 1, 0
   133,  1, 1,    1,    1,       1.3,       0.3, 0, 0, 0, 0, 1, 1, 0
   134,  1, 1,    1,    1,      71.7,      15.7, 0, 0, 0, 0, 1, 1, 0
   136,  1, 1,    1,    1,      18.8,       2.3, 0, 0, 0, 0, 1, 1, 0
   137,  1, 1,    1,    1,      13.4,      -9.1, 0, 0, 0, 0, 1, 1, 0
   139,  1, 1,    1,    1,       8.6,        -1, 0, 0, 0, 0, 1, 1, 0
   142,  1, 1,    1,    1,      15.8,       1.3, 0, 0, 0, 0, 1, 1, 0
   145,  1, 1,    1,    1,      21.2,        10, 0, 0, 0, 0, 1, 1, 0
   146,  1, 1,    1,    1,      25.6,       6.2, 0, 0, 0, 0, 1, 1, 0
   148,  1, 1,    1,    1,        25,       3.6, 0, 0, 0, 0, 1, 1, 0
   149,  1, 1,    1,    1,       6.3,       2.2, 0, 0, 0, 0, 1, 1, 0
   150,  1, 1,    1,    1,      17.9,       5.1, 0, 0, 0, 0, 1, 1, 0
   151,  1, 1,    1,    1,      41.9,       5.6, 0, 0, 0, 0, 1, 1, 0
   153,  1, 1,    1,    1,      34.2,       5.9, 0, 0, 0, 0, 1, 1, 0
   154,  1, 1,    1,    1,      20.4,       0.6, 0, 0, 0, 0, 1, 1, 0
   158,  1, 1,    1,    1,      -0.1,      -2.1, 0, 0, 0, 0, 1, 1, 0
   161,  1, 1,    1,    1,      29.5,       2.3, 0, 0, 0, 0, 1, 1, 0
   162,  1, 1,    1,    1,      31.5,       7.4, 0, 0, 0, 0, 1, 1, 0
   163,  1, 1,    1,    1,       0.4,      -1.6, 0, 0, 0, 0, 1, 1, 0
   166,  1, 1,    1,    1,      11.3,      -3.9, 0, 0, 0, 0, 1, 1, 0
   167,  1, 1,    1,    1,       5.8,       1.4, 0, 0, 0, 0, 1, 1, 0
   168,  1, 1,    1,    1,       7.8,      -0.9, 0, 0, 0, 0, 1, 1, 0
   170,  1, 1,    1,    1,       9.1,      -1.1, 0, 0, 0, 0, 1, 1, 0
   171,  1, 1,    1,    1,        60,       6.1, 0, 0, 0, 0, 1, 1, 0
   172,  1, 1,    1,    1,      21.4,      -1.8, 0, 0, 0, 0, 1, 1, 0
   174,  1, 1,    1,    1,      26.6,       6.6, 0, 0, 0, 0, 1, 1, 0
   175,  1, 1,    1,    1,      35.7,      -1.5, 0, 0, 0, 0, 1, 1, 0
   185,  1, 1,    1,    1,      12.1,      -5.9, 0, 0, 0, 0, 1, 1, 0
   186,  1, 1,    1,    1,        16,       3.1, 0, 0, 0, 0, 1, 1, 0
   187,  1, 1,    1,    1,       5.4,       0.3, 0, 0, 0, 0, 1, 1, 0
   188,  1, 1,    1,    1,         3,       0.4, 0, 0, 0, 0, 1, 1, 0
   189,  1, 1,    1,    1,      21.9,       2.4, 0, 0, 0, 0, 1, 1, 0
   190,  1, 1,    1,    1,       1.4,      -0.7, 0, 0, 0, 0, 1, 1, 0
   192,  1, 1,    1,    1,      12.5,       1.1, 0, 0, 0, 0, 1, 1, 0
   194,  1, 1,    1,    1,      12.7,      -1.3, 0, 0, 0, 0, 1, 1, 0
   195,  1, 1,    1,    1,       7.3,      -1.4, 0, 0, 0, 0, 1, 1, 0
   196,  1, 1,    1,    1,       7.7,       5.3, 0, 0, 0, 0, 1, 1, 0
   197,  1, 1,    1,    1,       1.4,      -3.2, 0, 0, 0, 0, 1, 1, 0
   200,  1, 1,    1,    1,        25,      -4.9, 0, 0, 0, 0, 1, 1, 0
   201,  1, 1,    1,    1,       8.5,      -2.4, 0, 0, 0, 0, 1, 1, 0
   202,  1, 1,    1,    1,       9.4,       0.4, 0, 0, 0, 0, 1, 1, 0
   204,  1, 1,    1,    1,      52.5,      20.6, 0, 0, 0, 0, 1, 1, 0
   205,  1, 1,    1,    1,      34.3,      -1.4, 0, 0, 0, 0, 1, 1, 0
   206,  1, 1,    1,    1,      24.7,       4.7, 0, 0, 0, 0, 1, 1, 0
   209,  1, 1,    1,    1,        42,       2.2, 0, 0, 0, 0, 1, 1, 0
   210,  1, 1,    1,    1,      26.8,      -0.4, 0, 0, 0, 0, 1, 1, 0
   211,  1, 1,    1,    1,        12,        -2, 0, 0, 0, 0, 1, 1, 0
   212,  1, 1,    1,    1,       2.9,       1.3, 0, 0, 0, 0, 1, 1, 0
   213,  1, 1,    1,    1,      42.7,       6.6, 0, 0, 0, 0, 1, 1, 0
   214,  1, 1,    1,    1,      29.7,      13.3, 0, 0, 0, 0, 1, 1, 0
   217,  1, 1,    1,    1,      33.1,         2, 0, 0, 0, 0, 1, 1, 0
   219,  1, 1,    1,    1,      15.4,      -7.4, 0, 0, 0, 0, 1, 1, 0
   220,  1, 1,    1,    1,      23.5,      -0.6, 0, 0, 0, 0, 1, 1, 0
   221,  1, 1,    1,    1,       0.9,      -0.9, 0, 0, 0, 0, 1, 1, 0
   222,  1, 1,    1,    1,       8.8,      -1.3, 0, 0, 0, 0, 1, 1, 0
   223,  1, 1,    1,    1,        11,       1.5, 0, 0, 0, 0, 1, 1, 0
   224,  1, 1,    1,    1,      14.1,     -11.3, 0, 0, 0, 0, 1, 1, 0
   226,  1, 1,    1,    1,        32,      -2.3, 0, 0, 0, 0, 1, 1, 0
   228,  1, 1,    1,    1,      75.7,      34.1, 0, 0, 0, 0, 1, 1, 0
   229,  1, 1,    1,    1,      74.7,      49.1, 0, 0, 0, 0, 1, 1, 0
   230,  1, 1,    1,    1,         4,       0.2, 0, 0, 0, 0, 1, 1, 0
   231,  1, 1,    1,    1,       9.9,        -2, 0, 0, 0, 0, 1, 1, 0
   232,  1, 1,    1,    1,      14.6,      -5.1, 0, 0, 0, 0, 1, 1, 0
   234,  1, 1,    1,    1,         6,      -2.4, 0, 0, 0, 0, 1, 1, 0
   235,  1, 1,    1,    1,       6.6,       1.5, 0, 0, 0, 0, 1, 1, 0
   237,  1, 1,    1,    1,      21.9,       6.1, 0, 0, 0, 0, 1, 1, 0
   238,  1, 1,    1,    1,        15,       2.4, 0, 0, 0, 0, 1, 1, 0
   239,  1, 1,    1,    1,        19,      -0.8, 0, 0, 0, 0, 1, 1, 0
   240,  1, 1,    1,    1,      37.4,         1, 0, 0, 0, 0, 1, 1, 0
   241,  1, 1,    1,    1,        19,        -2, 0, 0, 0, 0, 1, 1, 0
   242,  1, 1,    1,    1,      43.3,       2.4, 0, 0, 0, 0, 1, 1, 0
   243,  1, 1,    1,    1,      32.9,       4.7, 0, 0, 0, 0, 1, 1, 0
   244,  1, 1,    1,    1,      35.5,       0.5, 0, 0, 0, 0, 1, 1, 0
   245,  1, 1,    1,    1,      40.1,       4.7, 0, 0, 0, 0, 1, 1, 0
   246,  1, 1,    1,    1,      21.9,      -5.1, 0, 0, 0, 0, 1, 1, 0
   247,  1, 1,    1,    1,      43.9,       2.5, 0, 0, 0, 0, 1, 1, 0
   248,  1, 1,    1,    1,      10.7,       0.9, 0, 0, 0, 0, 1, 1, 0
   249,  1, 1,    1,    1,      14.2,       2.8, 0, 0, 0, 0, 1, 1, 0
   251,  1, 1,    1,    1,      22.6,       5.6, 0, 0, 0, 0, 1, 1, 0
   252,  1, 1,    1,    1,      19.5,      -2.3, 0, 0, 0, 0, 1, 1, 0
   253,  1, 1,    1,    1,      20.5,      -6.8, 0, 0, 0, 0, 1, 1, 0
   254,  1, 1,    1,    1,       5.6,       0.3, 0, 0, 0, 0, 1, 1, 0
   255,  1, 1,    1,    1,       7.5,      -3.1, 0, 0, 0, 0, 1, 1, 0
   256,  1, 1,    1,    1,      42.9,       4.8, 0, 0, 0, 0, 1, 1, 0
   257,  1, 1,    1,    1,      13.6,      -0.8, 0, 0, 0, 0, 1, 1, 0
   258,  1, 1,    1,    1,       7.5,       1.8, 0, 0, 0, 0, 1, 1, 0
   259,  1, 1,    1,    1,       1.7,         0, 0, 0, 0, 0, 1, 1, 0
   262,  1, 1,    1,    1,      27.8,       0.5, 0, 0, 0, 0, 1, 1, 0
   269,  1, 1,    1,    1,      19.1,         2, 0, 0, 0, 0, 1, 1, 0
   270,  1, 1,    1,    1,      47.2,       1.7, 0, 0, 0, 0, 1, 1, 0
   271,  1, 1,    1,    1,      10.7,      10.5, 0, 0, 0, 0, 1, 1, 0
   272,  1, 1,    1,    1,      18.5,      -1.3, 0, 0, 0, 0, 1, 1, 0
   275,  1, 1,    1,    1,        10,         6, 0, 0, 0, 0, 1, 1, 0
   276,  1, 1,    1,    1,      49.7,       0.7, 0, 0, 0, 0, 1, 1, 0
   277,  1, 1,    1,    1,      36.5,       1.2, 0, 0, 0, 0, 1, 1, 0
   280,  1, 1,    1,    1,       3.9,       3.2, 0, 0, 0, 0, 1, 1, 0
   281,  1, 1,    1,    1,       0.5,       3.1, 0, 0, 0, 0, 1, 1, 0
   282,  1, 1,    1,    1,      15.9,      -1.2, 0, 0, 0, 0, 1, 1, 0
   283,  1, 1,    1,    1,      36.5,       4.5, 0, 0, 0, 0, 1, 1, 0
   284,  1, 1,    1,    1,      10.8,         0, 0, 0, 0, 0, 1, 1, 0
   286,  1, 1,    1,    1,       6.2,      -1.4, 0, 0, 0, 0, 1, 1, 0
   287,  1, 1,    1,    1,      12.4,       2.7, 0, 0, 0, 0, 1, 1, 0
   288,  1, 1,    1,    1,       0.4,       3.8, 0, 0, 0, 0, 1, 1, 0
   289,  1, 1,    1,    1,      11.6,       2.3, 0, 0, 0, 0, 1, 1, 0
   290,  1, 1,    1,    1,      19.9,      -7.8, 0, 0, 0, 0, 1, 1, 0
   291,  1, 1,    1,    1,      26.8,      -4.5, 0, 0, 0, 0, 1, 1, 0
   292,  1, 1,    1,    1,        40,       5.8, 0, 0, 0, 0, 1, 1, 0
   293,  1, 1,    1,    1,       6.6,       4.2, 0, 0, 0, 0, 1, 1, 0
...
0 / END OF LOAD DATA, BEGIN FIXED SHUNT DATA
   144, 1, 1,       0,     -64
   153, 1, 1,       0,     7.7
   181, 1, 1,       0,     -32
   182, 1, 1,       0,     -32
   184, 1, 1,       0,     -80
   265, 1, 1,       0,      80
   269, 1, 1,       0,     -80
   459, 1, 1,       0,     -64
   617, 1, 1,       0,     -64
   669, 1, 1,       0,      10
   769, 1, 1,       0,      34
   916, 1, 1,       0,     -64
   917, 1, 1,       0,     -64
   935, 1, 1,       0,     -58
   936, 1, 1,       0,     -64
   937, 1, 1,       0,     -58
   938, 1, 1,       0,     -58
  1003, 1, 1,       0,     -64
  1079, 1, 1,       0,     -64
  1139, 1, 1,       0,      29
  1194, 1, 1,       0,     -80
  1215, 1, 1,       0,      40
  1255, 1, 1,       0,       9
  1267, 1, 1,       0,     -80
  1463, 1, 1,       0,       6
  1483, 1, 1,       0,      30
  1537, 1, 1,       0,     -64
  1538, 1, 1,       0,     -64
  1539, 1, 1,       0,      30
  1603, 1, 1,       0,     -64
  1604, 1, 1,       0,     -64
  1696, 1, 1,       0,      30
  1762, 1, 1,       0,    15.4
  1787, 1, 1,       0,    30.4
  1801, 1, 1,       0,      10
  1940, 1, 1,       0,     -64
  2048, 1, 1,       0,    15.4
  2095, 1, 1,       0,     -64
  2399, 1, 1,       0,      30
  2493, 1, 1,       0,      63
  2559, 1, 1,       0,      30
  2723, 1, 1,       0,     -64
  2731, 1, 1,       0,     640
  2778, 1, 1,       0,     -64
  2794, 1, 1,       0,     -64
  2795, 1, 1,       0,     -64
  2809, 1, 1,       0,      80
  2821, 1, 1,       0,      30
  2843, 1, 1,       0,     -64
  2905, 1, 1,       0,     -60
  2906, 1, 1,       0,     -58
  2928, 1, 1,       0,     -51
  2981, 1, 1,       0,     -60
  2982, 1, 1,       0,     -60
  3047, 1, 1,       0,     -64
  3048, 1, 1,       0,     -64
  3181, 1, 1,       0,     -80
  3315, 1, 1,       0,      15
  3339, 1, 1,       0,      60
  3475, 1, 1,       0,    30.7
  3502, 1, 1,       0,      30
  3558, 1, 1,       0,      80
  3632, 1, 1,       0,     -60
  3640, 1, 1,       0,      30
  3644, 1, 1,       0,      20
  3686, 1, 1,       0,     -50
  3893, 1, 1,       0,      30
  3900, 1, 1,       0,     -31
  3903, 1, 1,       0,     -80
  3957, 1, 1,       0,     -64
  4026, 1, 1,       0,      34
  4069, 1, 1,       0,     -58
  4099, 1, 1,       0,     -64
  4100, 1, 1,       0,     -64
  4130, 1, 1,       0,     -64
  4281, 1, 1,       0,      20
  4440, 1, 1,       0,     -15
  4481, 1, 1,       0,      20
  4496, 1, 1,       0,    15.4
  4570, 1, 1,       0,      80
  4630, 1, 1,       0,      30
  4683, 1, 1,       0,     -54
  4698, 1, 1,       0,      61
  4765, 1, 1,       0,      30
  4794, 1, 1,       0,     -64
  4882, 1, 1,       0,     -64
  4980, 1, 1,       0,     -58
  4981, 1, 1,       0,     -58
  4982, 1, 1,       0,     -60
  5000, 1, 1,       0,     -56
  5001, 1, 1,       0,     -60
  5002, 1, 1,       0,     -64
  5990, 1, 1,       0,    -150
  5993, 1, 1,       0,    -150
  6145, 1, 1,       0,    -150
  6185, 1, 1,       0,    -150
  6215, 1, 1,       0,    -150
0 / END OF FIXED SHUNT DATA, BEGIN GENERATOR DATA
     4,  1,         0,         0,         0,         0,    1.067, 0,     100, 0, 1, 0, 0, 1, 0, 100,        12,         0, 1, 1, 0, 1, 0, 1, 0, 1, 0, 1
     4,  2,         0,         0,         0,         0,    1.067, 0,     100, 0, 1, 0, 0, 1, 0, 100,        10,         0, 1, 1, 0, 1, 0, 1, 0, 1, 0, 1
     5,  1,         0,         0,         0,         0,    0.985, 0,     100, 0, 1, 0, 0, 1, 0, 100,       9.1,         0, 1, 1, 0, 1, 0, 1, 0, 1, 0, 1
    11,  1,         0,         0,         0,         0,    1.067, 0,     100, 0, 1, 0, 0, 1, 0, 100,        28,         0, 1, 1, 0, 1, 0, 1, 0, 1, 0, 1
    11,  2,         0,         0,         0,         0,    1.067, 0,     100, 0, 1, 0, 0, 1, 0, 100,        18,         0, 1, 1, 0, 1, 0, 1, 0, 1, 0, 1
    17,  1,         0,         0,         0,         0,    1.055, 0,     100, 0, 1, 0, 0, 1, 0, 100,       8.2,         0, 1, 1, 0, 1, 0, 1, 0, 1, 0, 1
    19,  1,         0,         0,         0,         0,     1.03, 0,     100, 0, 1, 0, 0, 1, 0, 100,       1.2,         0, 1, 1, 0, 1, 0, 1, 0, 1, 0, 1
    22,  1,         0,         0,         0,         0,    1.004, 0,     100, 0, 1, 0, 0, 1, 0, 100,        10,         0, 1, 1, 0, 1, 0, 1, 0, 1, 0, 1
    24,  1,         0,         0,         0,         0,    1.064, 0,     100, 0, 1, 0, 0, 1, 0, 100,      16.1,         0, 1, 1, 0, 1, 0, 1, 0, 1, 0, 1
    24,  2,         0,         0,         0,         0,    1.064, 0,     100, 0, 1, 0, 0, 1, 0, 100,      35.5,         0, 1, 1, 0, 1, 0, 1, 0, 1, 0, 1
    25,  1,         0,         0,         0,         0,    1.093, 0,     100, 0, 1, 0, 0, 1, 0, 100,        36,         0, 1, 1, 0, 1, 0, 1, 0, 1, 0, 1
    25,  2,         0,         0,         0,         0,    1.093, 0,     100, 0, 1, 0, 0, 1, 0, 100,      27.2,         0, 1, 1, 0, 1, 0, 1, 0, 1, 0, 1
    40,  1,         0,         0,         0,         0,    1.044, 0,     100, 0, 1, 0, 0, 1, 0, 100,         8,         0, 1, 1, 0, 1, 0, 1, 0, 1, 0, 1
    47,  1,         0,     -3.11,       9.5,      -9.5,    0.994, 0,     100, 0, 1, 0, 0, 1, 0, 100,        16,         0, 1, 1, 0, 1, 0, 1, 0, 1, 0, 1
    47,  2,         0,     -3.11,       9.5,      -9.5,    0.994, 0,     100, 0, 1, 0, 0, 1, 0, 100,        16,         0, 1, 1, 0, 1, 0, 1, 0, 1, 0, 1
    48,  1,         0,         0,         0,         0,    1.052, 0,     100, 0, 1, 0, 0, 1, 0, 100,        23,         0, 1, 1, 0, 1, 0, 1, 0, 1, 0, 1
    48,  2,         0,         0,         0,         0,    1.052, 0,     100, 0, 1, 0, 0, 1, 0, 100,        24,         0, 1, 1, 0, 1, 0, 1, 0, 1, 0, 1
    57,  1,         0,         1,         1,       0.9,    1.059, 0,     100, 0, 1, 0, 0, 1, 1, 100,        13,         0, 1, 1, 0, 1, 0, 1, 0, 1, 0, 1
    64,  1,         0,         0,         0,         0,    1.073, 0,     100, 0, 1, 0, 0, 1, 0, 100,        24,         0, 1, 1, 0, 1, 0, 1, 0, 1, 0, 1
    64,  2,         0,         0,         0,         0,    1.073, 0,     100, 0, 1, 0, 0, 1, 0, 100,      27.6,         0, 1, 1, 0, 1, 0, 1, 0, 1, 0, 1
    69,  1,      0.47,         0,         0,         0,    1.013, 0,     100, 0, 1, 0, 0, 1, 1, 100,     30.04,         0, 1, 1, 0, 1, 0, 1, 0, 1, 0, 1
    70,  1,         0,         0,         0,         0,    1.007, 0,     100, 0, 1, 0, 0, 1, 0, 100,        23,         0, 1, 1, 0, 1, 0, 1, 0, 1, 0, 1
    85,  1,         0,         0,         0,         0,    1.044, 0,     100, 0, 1, 0, 0, 1, 0, 100,      6.68,         0, 1, 1, 0, 1, 0, 1, 0, 1, 0, 1
    86,  1,         0,         0,         0,         0,    1.018, 0,     100, 0, 1, 0, 0, 1, 0, 100,       9.2,         0, 1, 1, 0, 1, 0, 1, 0, 1, 0, 1
   102,  1,     10.34,     -4.82,        21,        -9,     1.02, 0,     100, 0, 1, 0, 0, 1, 1, 100,        46,         0, 1, 1, 0, 1, 0, 1, 0, 1, 0, 1
   122,  1,         0,      -0.8,         5,        -2,     1.01, 0,     100, 0, 1, 0, 0, 1, 0, 100,        12,         0, 1, 1, 0, 1, 0, 1, 0, 1, 0, 1
   124,  1,         0,         0,         0,         0,     1.05, 0,     100, 0, 1, 0, 0, 1, 0, 100,         9,         0, 1, 1, 0, 1, 0, 1, 0, 1, 0, 1
   125,  1,      5.03,         0,         0,         0,    1.027, 0,     100, 0, 1, 0, 0, 1, 1, 100,        26,         0, 1, 1, 0, 1, 0, 1, 0, 1, 0, 1
   125,  2,         0,         0,         0,         0,    1.027, 0,     100, 0, 1, 0, 0, 1, 0, 100,        12,         0, 1, 1, 0, 1, 0, 1, 0, 1, 0, 1
   132,  1,         0,      0.75,         3,        -3,    1.047, 0,     100, 0, 1, 0, 0, 1, 0, 100,        17,         0, 1, 1, 0, 1, 0, 1, 0, 1, 0, 1
   132,  2,         0,      0.75,         1,        -1,    1.047, 0,     100, 0, 1, 0, 0, 1, 0, 100,         4,         0, 1, 1, 0, 1, 0, 1, 0, 1, 0, 1
   132,  3,         0,      0.75,         3,        -3,    1.047, 0,     100, 0, 1, 0, 0, 1, 0, 100,        14,         0, 1, 1, 0, 1, 0, 1, 0, 1, 0, 1
   132,  4,         0,      0.75,         3,        -3,    1.047, 0,     100, 0, 1, 0, 0, 1, 0, 100,        14,         0, 1, 1, 0, 1, 0, 1, 0, 1, 0, 1
   137,  1,         0,      -0.8,       0.8,      -0.8,    1.007, 0,     100, 0, 1, 0, 0, 1, 0, 100,        18,         0, 1, 1, 0, 1, 0, 1, 0, 1, 0, 1
   137,  2,         0,      -0.8,       0.8,      -0.8,    1.007, 0,     100, 0, 1, 0, 0, 1, 0, 100,        18,         0, 1, 1, 0, 1, 0, 1, 0, 1, 0, 1
   156,  1,         0,       1.5,      1.76,     -1.76,    1.063, 0,     100, 0, 1, 0, 0, 1, 0, 100,       5.3,         0, 1, 1, 0, 1, 0, 1, 0, 1, 0, 1
   159,  1,         0,       1.1,        10,       -13,    0.942, 0,     100, 0, 1, 0, 0, 1, 0, 100,      17.9,         0, 1, 1, 0, 1, 0, 1, 0, 1, 0, 1
   159,  2,         0,      -1.9,        10,       -13,    0.942, 0,     100, 0, 1, 0, 0, 1, 0, 100,      17.9,         0, 1, 1, 0, 1, 0, 1, 0, 1, 0, 1
   178,  1,         0,     -1.31,        10,        -4,      1.1, 0,     100, 0, 1, 0, 0, 1, 0, 100,        30,         0, 1, 1, 0, 1, 0, 1, 0, 1, 0, 1
   191,  1,         0,     -0.09,         8,        -8,    1.075, 0,     100, 0, 1, 0, 0, 1, 0, 100,        11,         0, 1, 1, 0, 1, 0, 1, 0, 1, 0, 1
   191,  2,         0,     -0.09,         2,        -2,    1.075, 0,     100, 0, 1, 0, 0, 1, 0, 100,        11,         0, 1, 1, 0, 1, 0, 1, 0, 1, 0, 1
   193,  1,         0,     -2.64,        14,       -14,    0.922, 0,     100, 0, 1, 0, 0, 1, 0, 100,        30,         0, 1, 1, 0, 1, 0, 1, 0, 1, 0, 1
   195,  1,         0,         0,         0,         0,    1.058, 0,     100, 0, 1, 0, 0, 1, 0, 100,      23.5,         0, 1, 1, 0, 1, 0, 1, 0, 1, 0, 1
   197,  1,         0,         1,         1,       0.9,    1.071, 0,     100, 0, 1, 0, 0, 1, 1, 100,        15,         0, 1, 1, 0, 1, 0, 1, 0, 1, 0, 1
   197,  2,         0,         1,         1,       0.9,    1.071, 0,     100, 0, 1, 0, 0, 1, 1, 100,        15,         0, 1, 1, 0, 1, 0, 1, 0, 1, 0, 1
   220,  1,         0,         0,         0,         0,     1.02, 0,     100, 0, 1, 0, 0, 1, 0, 100,     11.94,         0, 1, 1, 0, 1, 0, 1, 0, 1, 0, 1
   227,  1,         0,         0,         2,         0,      1.1, 0,     100, 0, 1, 0, 0, 1, 0, 100,         6,         0, 1, 1, 0, 1, 0, 1, 0, 1, 0, 1
   230,  1,         0,         0,         0,         0,    0.991, 0,     100, 0, 1, 0, 0, 1, 0, 100,       7.5,         0, 1, 1, 0, 1, 0, 1, 0, 1, 0, 1
   239,  1,         0,         0,         0,         0,    1.062, 0,     100, 0, 1, 0, 0, 1, 0, 100,      33.5,         0, 1, 1, 0, 1, 0, 1, 0, 1, 0, 1
   239,  2,         0,         0,         0,         0,    1.062, 0,     100, 0, 1, 0, 0, 1, 0, 100,      24.3,         0, 1, 1, 0, 1, 0, 1, 0, 1, 0, 1
   241,  1,         0,         0,         0,         0,    1.029, 0,     100, 0, 1, 0, 0, 1, 0, 100,         8,         0, 1, 1, 0, 1, 0, 1, 0, 1, 0, 1
   241,  2,         0,         0,         0,         0,    1.029, 0,     100, 0, 1, 0, 0, 1, 0, 100,        36,         0, 1, 1, 0, 1, 0, 1, 0, 1, 0, 1
   249,  1,         0,         0,         2,         0,    0.968, 0,     100, 0, 1, 0, 0, 1, 0, 100,         1,         0, 1, 1, 0, 1, 0, 1, 0, 1, 0, 1
   249,  2,         0,     -2.59,        10,       -10,    0.968, 0,     100, 0, 1, 0, 0, 1, 0, 100,        31,         0, 1, 1, 0, 1, 0, 1, 0, 1, 0, 1
   249,  3,         0,     -2.59,        10,       -10,    0.968, 0,     100, 0, 1, 0, 0, 1, 0, 100,        31,         0, 1, 1, 0, 1, 0, 1, 0, 1, 0, 1
   249,  4,         0,     -2.59,        10,       -10,    0.968, 0,     100, 0, 1, 0, 0, 1, 0, 100,        31,         0, 1, 1, 0, 1, 0, 1, 0, 1, 0, 1
   259,  1,         0,      3.48,        10,       -10,    1.059, 0,     100, 0, 1, 0, 0, 1, 0, 100,        26,         0, 1, 1, 0, 1, 0, 1, 0, 1, 0, 1
   259,  2,         0,      2.51,        10,       -10,    1.059, 0,     100, 0, 1, 0, 0, 1, 0, 100,        26,         0, 1, 1, 0, 1, 0, 1, 0, 1, 0, 1
   261,  1,         0,         0,         1,       0.9,    1.057, 0,     100, 0, 1, 0, 0, 1, 0, 100,        30,         0, 1, 1, 0, 1, 0, 1, 0, 1, 0, 1
   264,  1,         0,         4,         4,        -4,    1.078, 0,     100, 0, 1, 0, 0, 1, 0, 100,         8,         0, 1, 1, 0, 1, 0, 1, 0, 1, 0, 1
   272,  1,         0,         0,         0,         0,     1.03, 0,     100, 0, 1, 0, 0, 1, 0, 100,      12.6,         0, 1, 1, 0, 1, 0, 1, 0, 1, 0, 1
   285,  1,         0,     -2.62,       6.1,      -6.2,    0.968, 0,     100, 0, 1, 0, 0, 1, 0, 100,      11.6,         0, 1, 1, 0, 1, 0, 1, 0, 1, 0, 1
   298,  1,         0,         0,         0,         0,    1.071, 0,     100, 0, 1, 0, 0, 1, 0, 100,      25.3,         0, 1, 1, 0, 1, 0, 1, 0, 1, 0, 1
   299,  1,         0,         0,         0,         0,    1.028, 0,     100, 0, 1, 0, 0, 1, 0, 100,        12,         0, 1, 1, 0, 1, 0, 1, 0, 1, 0, 1
   308,  1,         0,      -6.7,         9,        -9,    1.046, 0,     100, 0, 1, 0, 0, 1, 0, 100,        15,         0, 1, 1, 0, 1, 0, 1, 0, 1, 0, 1
   315,  1,      10.1,         0,         0,         0,     1.02, 0,     100, 0, 1, 0, 0, 1, 1, 100,      25.8,         0, 1, 1, 0, 1, 0, 1, 0, 1, 0, 1
   315,  2,      26.1,         0,         0,         0,     1.02, 0,     100, 0, 1, 0, 0, 1, 1, 100,      49.6,         0, 1, 1, 0, 1, 0, 1, 0, 1, 0, 1
   322,  1,         0,       0.1,       0.1,      -0.1,    1.056, 0,     100, 0, 1, 0, 0, 1, 0, 100,      10.8,         0, 1, 1, 0, 1, 0, 1, 0, 1, 0, 1
   328,  2,         0,     -0.23,         4,        -4,    1.036, 0,     100, 0, 1, 0, 0, 1, 0, 100,        11,         0, 1, 1, 0, 1, 0, 1, 0, 1, 0, 1
   335,  1,         0,      2.42,        13,        -9,    1.036, 0,     100, 0, 1, 0, 0, 1, 0, 100,        25,         0, 1, 1, 0, 1, 0, 1, 0, 1, 0, 1
   336,  1,         0,      4.48,        13,        -9,     1.04, 0,     100, 0, 1, 0, 0, 1, 0, 100,        25,         0, 1, 1, 0, 1, 0, 1, 0, 1, 0, 1
   339,  1,         0,      2.68,         5,        -6,    1.022, 0,     100, 0, 1, 0, 0, 1, 0, 100,        13,         0, 1, 1, 0, 1, 0, 1, 0, 1, 0, 1
   341,  1,         0,      1.05,        10,       -10,    1.079, 0,     100, 0, 1, 0, 0, 1, 0, 100,        21,         0, 1, 1, 0, 1, 0, 1, 0, 1, 0, 1
   341,  2,         0,       0.1,       0.1,      -0.1,    1.079, 0,     100, 0, 1, 0, 0, 1, 0, 100,         2,         0, 1, 1, 0, 1, 0, 1, 0, 1, 0, 1
   348,  1,         0,         0,         0,         0,    1.056, 0,     100, 0, 1, 0, 0, 1, 0, 100,       2.3,         0, 1, 1, 0, 1, 0, 1, 0, 1, 0, 1
   348,  2,      2.13,         0,         0,         0,    1.056, 0,     100, 0, 1, 0, 0, 1, 1, 100,      19.5,         0, 1, 1, 0, 1, 0, 1, 0, 1, 0, 1
   351,  1,         0,         0,         0,         0,    1.081, 0,     100, 0, 1, 0, 0, 1, 0, 100,        22,         0, 1, 1, 0, 1, 0, 1, 0, 1, 0, 1
   359,  2,         0,      9.21,        30,       -30,    1.035, 0,     100, 0, 1, 0, 0, 1, 0, 100,        30,         0, 1, 1, 0, 1, 0, 1, 0, 1, 0, 1
   360,  1,         0,         0,         0,         0,    0.988, 0,     100, 0, 1, 0, 0, 1, 0, 100,        12,         0, 1, 1, 0, 1, 0, 1, 0, 1, 0, 1
   360,  2,         0,         0,         0,         0,    0.988, 0,     100, 0, 1, 0, 0, 1, 0, 100,        12,         0, 1, 1, 0, 1, 0, 1, 0, 1, 0, 1
   367,  1,    119.17,     17.39,        59,       -26,    1.072, 0,     100, 0, 1, 0, 0, 1, 1, 100,       130,         0, 1, 1, 0, 1, 0, 1, 0, 1, 0, 1
   394,  2,         0,         0,         0,         0,    1.031, 0,     100, 0, 1, 0, 0, 1, 0, 100,       2.7,         0, 1, 1, 0, 1, 0, 1, 0, 1, 0, 1
   413,  1,         0,         0,         0,         0,     1.03, 0,     100, 0, 1, 0, 0, 1, 0, 100,        10,         0, 1, 1, 0, 1, 0, 1, 0, 1, 0, 1
   413,  2,         0,         0,         0,         0,     1.03, 0,     100, 0, 1, 0, 0, 1, 0, 100,      11.5,         0, 1, 1, 0, 1, 0, 1, 0, 1, 0, 1
   433,  1,         0,         0,         0,         0,    1.058, 0,     100, 0, 1, 0, 0, 1, 0, 100,        12,         0, 1, 1, 0, 1, 0, 1, 0, 1, 0, 1
   442,  2,         0,      5.39,     10.96,    -11.99,    1.065, 0,     100, 0, 1, 0, 0, 1, 0, 100,     34.25,         0, 1, 1, 0, 1, 0, 1, 0, 1, 0, 1
   449,  1,         0,     -0.57,         8,        -9,    0.994, 0,     100, 0, 1, 0, 0, 1, 0, 100,        25,         0, 1, 1, 0, 1, 0, 1, 0, 1, 0, 1
   465,  1,         0,         0,         0,         0,    0.992, 0,     100, 0, 1, 0, 0, 1, 0, 100,       2.4,         0, 1, 1, 0, 1, 0, 1, 0, 1, 0, 1
   465,  2,         0,         0,         0,         0,    0.992, 0,     100, 0, 1, 0, 0, 1, 0, 100,        16,         0, 1, 1, 0, 1, 0, 1, 0, 1, 0, 1
   467,  1,         1,     -2.26,         6,        -3,     1.17, 0,     100, 0, 1, 0, 0, 1, 1, 100,        27,         1, 1, 1, 0, 1, 0, 1, 0, 1, 0, 1
   467,  2,         1,     -2.26,         6,        -3,     1.17, 0,     100, 0, 1, 0, 0, 1, 1, 100,        27,         1, 1, 1, 0, 1, 0, 1, 0, 1, 0, 1
   469,  1,     28.37,        19,        19,       -10,    1.029, 0,     100, 0, 1, 0, 0, 1, 1, 100,        48,         1, 1, 1, 0, 1, 0, 1, 0, 1, 0, 1
   473,  2,         0,     -3.72,         6,        -6,     1.02, 0,     100, 0, 1, 0, 0, 1, 0, 100,        10,         0, 1, 1, 0, 1, 0, 1, 0, 1, 0, 1
   473,  1,         0,      -5.4,       5.4,      -5.4,     1.02, 0,     100, 0, 1, 0, 0, 1, 0, 100,         9,         0, 1, 1, 0, 1, 0, 1, 0, 1, 0, 1
   482,  1,         0,     -2.21,        17,       -16,    0.975, 0,     100, 0, 1, 0, 0, 1, 0, 100,        27,         0, 1, 1, 0, 1, 0, 1, 0, 1, 0, 1
   482,  2,         0,     -2.21,        17,       -16,    0.975, 0,     100, 0, 1, 0, 0, 1, 0, 100,        27,         0, 1, 1, 0, 1, 0, 1, 0, 1, 0, 1
   482,  3,         0,     -2.21,        17,       -16,    0.975, 0,     100, 0, 1, 0, 0, 1, 0, 100,        27,         0, 1, 1, 0, 1, 0, 1, 0, 1, 0, 1
   494,  2,         0,      0.09,         8,       -17,    1.049, 0,     100, 0, 1, 0, 0, 1, 0, 100,      23.4,         0, 1, 1, 0, 1, 0, 1, 0, 1, 0, 1
   511,  3,         0,      1.56,         2,        -2,    1.008, 0,     100, 0, 1, 0, 0, 1, 0, 100,         4,         0, 1, 1, 0, 1, 0, 1, 0, 1, 0, 1
   520,  1,         0,         0,         0,         0,     1.03, 0,     100, 0, 1, 0, 0, 1, 0, 100,        10,         0, 1, 1, 0, 1, 0, 1, 0, 1, 0, 1
   521,  1,         0,         0,         0,         0,     1.04, 0,     100, 0, 1, 0, 0, 1, 0, 100,        12,         0, 1, 1, 0, 1, 0, 1, 0, 1, 0, 1
   531,  1,         0,     -1.49,       4.8,      -4.8,    1.001, 0,     100, 0, 1, 0, 0, 1, 0, 100,         8,         0, 1, 1, 0, 1, 0, 1, 0, 1, 0, 1
   531,  2,         0,     -1.49,       4.8,      -4.8,    1.001, 0,     100, 0, 1, 0, 0, 1, 0, 100,         8,         0, 1, 1, 0, 1, 0, 1, 0, 1, 0, 1
   531,  3,         0,     -1.49,       4.8,      -4.8,    1.001, 0,     100, 0, 1, 0, 0, 1, 0, 100,         8,         0, 1, 1, 0, 1, 0, 1, 0, 1, 0, 1
   537,  2,         0,         0,         0,         0,    1.026, 0,     100, 0, 1, 0, 0, 1, 0, 100,        12,         0, 1, 1, 0, 1, 0, 1, 0, 1, 0, 1
   537,  3,      0.02,         0,         0,         0,    1.026, 0,     100, 0, 1, 0, 0, 1, 1, 100,        24,         0, 1, 1, 0, 1, 0, 1, 0, 1, 0, 1
   546,  1,         0,         2,         2,       1.9,    1.066, 0,     100, 0, 1, 0, 0, 1, 1, 100,         9,         0, 1, 1, 0, 1, 0, 1, 0, 1, 0, 1
   549,  2,         0,         2,         2,         0,    1.057, 0,     100, 0, 1, 0, 0, 1, 0, 100,        12,         0, 1, 1, 0, 1, 0, 1, 0, 1, 0, 1
   571,  1,         0,         0,         0,         0,    0.985, 0,     100, 0, 1, 0, 0, 1, 0, 100,        12,         0, 1, 1, 0, 1, 0, 1, 0, 1, 0, 1
   571,  2,      3.94,         0,         0,         0,    0.985, 0,     100, 0, 1, 0, 0, 1, 1, 100,        30,         0, 1, 1, 0, 1, 0, 1, 0, 1, 0, 1
   571,  3,         0,         0,         0,         0,    0.985, 0,     100, 0, 1, 0, 0, 1, 0, 100,      11.5,         0, 1, 1, 0, 1, 0, 1, 0, 1, 0, 1
   584,  2,      0.27,         7,         7,        -4,    1.035, 0,     100, 0, 1, 0, 0, 1, 1, 100,        16,         0, 1, 1, 0, 1, 0, 1, 0, 1, 0, 1
   586,  3,         0,         0,         0,         0,    0.981, 0,     100, 0, 1, 0, 0, 1, 0, 100,         9,         0, 1, 1, 0, 1, 0, 1, 0, 1, 0, 1
   587,  1,         0,     -4.04,       5.7,      -5.7,    0.997, 0,     100, 0, 1, 0, 0, 1, 0, 100,       9.5,         0, 1, 1, 0, 1, 0, 1, 0, 1, 0, 1
   590,  1,         0,       0.1,       0.1,      -0.1,    1.037, 0,     100, 0, 1, 0, 0, 1, 0, 100,         1,         0, 1, 1, 0, 1, 0, 1, 0, 1, 0, 1
   594,  1,         0,      2.85,        10,       -10,    1.045, 0,     100, 0, 1, 0, 0, 1, 0, 100,        21,         0, 1, 1, 0, 1, 0, 1, 0, 1, 0, 1
   601,  1,         0,         1,         1,        -1,    1.034, 0,     100, 0, 1, 0, 0, 1, 0, 100,       6.1,         0, 1, 1, 0, 1, 0, 1, 0, 1, 0, 1
   611,  1,     32.39,     -6.79,        45,       -45,    1.022, 0,     100, 0, 1, 0, 0, 1, 1, 100,        45,         0, 1, 1, 0, 1, 0, 1, 0, 1, 0, 1
   611,  2,         0,     -1.37,        45,       -45,    1.022, 0,     100, 0, 1, 0, 0, 1, 0, 100,        45,         0, 1, 1, 0, 1, 0, 1, 0, 1, 0, 1
   613,  1,         0,         0,         0,         0,    1.017, 0,     100, 0, 1, 0, 0, 1, 0, 100,        12,         0, 1, 1, 0, 1, 0, 1, 0, 1, 0, 1
   613,  2,         0,         0,         0,         0,    1.017, 0,     100, 0, 1, 0, 0, 1, 0, 100,        12,         0, 1, 1, 0, 1, 0, 1, 0, 1, 0, 1
   613,  3,         0,         0,         0,         0,    1.017, 0,     100, 0, 1, 0, 0, 1, 0, 100,        12,         0, 1, 1, 0, 1, 0, 1, 0, 1, 0, 1
   614,  2,         0,         0,         0,         0,     1.03, 0,     100, 0, 1, 0, 0, 1, 0, 100,        35,         0, 1, 1, 0, 1, 0, 1, 0, 1, 0, 1
   614,  3,         0,         0,         0,         0,     1.03, 0,     100, 0, 1, 0, 0, 1, 0, 100,      11.5,         0, 1, 1, 0, 1, 0, 1, 0, 1, 0, 1
   626,  1,         0,      -8.3,       8.3,      -8.3,     1.03, 0,     100, 0, 1, 0, 0, 1, 0, 100,       8.3,      -8.3, 1, 1, 0, 1, 0, 1, 0, 1, 0, 1
   635,  2,         0,        -6,         4,        -6,    1.031, 0,     100, 0, 1, 0, 0, 1, 0, 100,       7.3,         0, 1, 1, 0, 1, 0, 1, 0, 1, 0, 1
   638,  1,         0,      1.83,         7,         0,    1.013, 0,     100, 0, 1, 0, 0, 1, 0, 100,        15,         0, 1, 1, 0, 1, 0, 1, 0, 1, 0, 1
   638,  2,         0,      5.83,         7,         0,    1.013, 0,     100, 0, 1, 0, 0, 1, 0, 100,        15,         0, 1, 1, 0, 1, 0, 1, 0, 1, 0, 1
   653,  1,         0,         0,         7,         0,    1.058, 0,     100, 0, 1, 0, 0, 1, 0, 100,         7,         0, 1, 1, 0, 1, 0, 1, 0, 1, 0, 1
   671,  2,         0,         0,         0,         0,    1.048, 0,     100, 0, 1, 0, 0, 1, 0, 100,        12,         0, 1, 1, 0, 1, 0, 1, 0, 1, 0, 1
   671,  1,         0,         0,         0,         0,    1.048, 0,     100, 0, 1, 0, 0, 1, 0, 100,        12,         0, 1, 1, 0, 1, 0, 1, 0, 1, 0, 1
...